Clear

Set DefaultBaseFrequency=50

New Circuit.LV28 bus1=sourcebus.1 basekv=12.701706 pu=0.9952718700196848 angle=-3.51278467e-01 phases=1

!-----Elements--------
Redirect LoadShapes.txt
Redirect Vsource.txt
Redirect LineCodes.txt
Redirect Transformer.txt
Redirect Lines.txt
Redirect Customers.txt
Redirect PVSystems.txt
Redirect PVInverters.txt

!-----Settings--------
Set maxiterations=1000
Set Maxcontroliter=1000

!-----Load Flow------
calcvoltagebases
calcv
